ABR_15732740
Max_kW_DU = 2114.56
Max_kW_SA = 2068.08
Max_kW_DO = 1966.72
----------------------------------------
New "Loadshape.UGMT_DU" 24 1.0 mult=(0.0 0.0 0.0 0.0 0.0 0.0 0.0 0.0 0.0273 0.1761 0.3423 0.5725 0.6807 0.728 0.6992 0.6675 0.5879 0.4505 0.2236 0.0154 0.0 0.0 0.0 0.0)
New "Loadshape.UGMT_SA" 24 1.0 mult=(0.0 0.0 0.0 0.0 0.0 0.0 0.0 0.0 0.0098 0.0985 0.3137 0.5659 0.7605 0.7635 0.7757 0.6444 0.4806 0.4268 0.2314 0.0206 0.0 0.0 0.0 0.0)
New "Loadshape.UGMT_DO" 24 1.0 mult=(0.0 0.0 0.0 0.0 0.0 0.0 0.0 0.0 0.0266 0.2226 0.3938 0.5568 0.576 0.7421 0.7916 0.6708 0.603 0.4239 0.215 0.015 0.0 0.0 0.0 0.0)
