AGO_15732740
Max_kW_DU = 1951.04
Max_kW_SA = 1934.8
Max_kW_DO = 1907.92
----------------------------------------
New "Loadshape.UGMT_DU" 24 1.0 mult=(0.0 0.0 0.0 0.0 0.0 0.0 0.0 0.0 0.003 0.1656 0.449 0.6288 0.7228 0.7655 0.8009 0.7611 0.6832 0.5385 0.2936 0.018 0.0 0.0 0.0 0.0)
New "Loadshape.UGMT_SA" 24 1.0 mult=(0.0 0.0 0.0 0.0 0.0 0.0 0.0 0.0 0.0031 0.1449 0.5013 0.6743 0.7844 0.8649 0.7645 0.8332 0.8119 0.6905 0.3241 0.0145 0.0 0.0 0.0 0.0)
New "Loadshape.UGMT_DO" 24 1.0 mult=(0.0 0.0 0.0 0.0 0.0 0.0 0.0 0.0 0.0031 0.1971 0.4997 0.6779 0.7095 0.7202 0.782 0.7488 0.692 0.5483 0.251 0.0162 0.0 0.0 0.0 0.0)
