ANUAL_15732740
Max_kW_DU = 2649.92
Max_kW_SA = 2583.84
Max_kW_DO = 2639.84
----------------------------------------
New "Loadshape.UGMT_DU" 24 1.0 mult=(0.0 0.0 0.0 0.0 0.0 0.0 0.0033 0.0389 0.1433 0.2836 0.428 0.5351 0.5934 0.6109 0.589 0.5306 0.4525 0.3309 0.1497 0.024 0.0011 0.0 0.0 0.0)
New "Loadshape.UGMT_SA" 24 1.0 mult=(0.0 0.0 0.0 0.0 0.0 0.0 0.0026 0.0338 0.1298 0.2853 0.4542 0.5541 0.6007 0.6219 0.6171 0.5487 0.4724 0.3404 0.1546 0.0215 0.0008 0.0 0.0 0.0)
New "Loadshape.UGMT_DO" 24 1.0 mult=(0.0 0.0 0.0 0.0 0.0 0.0 0.0021 0.0358 0.1221 0.2573 0.4113 0.5433 0.5893 0.6103 0.5847 0.5138 0.4578 0.3229 0.1561 0.0206 0.0006 0.0 0.0 0.0)
