DEZ_15732740
Max_kW_DU = 2649.92
Max_kW_SA = 2583.84
Max_kW_DO = 2534.0
----------------------------------------
New "Loadshape.UGMT_DU" 24 1.0 mult=(0.0 0.0 0.0 0.0 0.0 0.0 0.0204 0.196 0.4416 0.6048 0.7246 0.7684 0.7915 0.81 0.7507 0.6204 0.5357 0.3963 0.193 0.0195 0.0 0.0 0.0 0.0)
New "Loadshape.UGMT_SA" 24 1.0 mult=(0.0 0.0 0.0 0.0 0.0 0.0 0.0118 0.1242 0.427 0.5747 0.7718 0.8091 0.8003 0.7147 0.664 0.5039 0.483 0.3766 0.1653 0.0131 0.0 0.0 0.0 0.0)
New "Loadshape.UGMT_DO" 24 1.0 mult=(0.0 0.0 0.0 0.0 0.0 0.0 0.013 0.1633 0.282 0.4004 0.653 0.8408 0.915 0.8963 0.8508 0.6724 0.5289 0.3619 0.1458 0.0104 0.0 0.0 0.0 0.0)
