FEV_15732740
Max_kW_DU = 2479.12
Max_kW_SA = 2507.12
Max_kW_DO = 2437.68
----------------------------------------
New "Loadshape.UGMT_DU" 24 1.0 mult=(0.0 0.0 0.0 0.0 0.0 0.0 0.0 0.003 0.084 0.2703 0.473 0.6042 0.7182 0.7434 0.7225 0.5445 0.4399 0.3089 0.1808 0.0782 0.0063 0.0 0.0 0.0)
New "Loadshape.UGMT_SA" 24 1.0 mult=(0.0 0.0 0.0 0.0 0.0 0.0 0.0 0.0024 0.0668 0.1936 0.4276 0.5007 0.4681 0.5423 0.7025 0.6054 0.5154 0.3103 0.0785 0.0304 0.0037 0.0 0.0 0.0)
New "Loadshape.UGMT_DO" 24 1.0 mult=(0.0 0.0 0.0 0.0 0.0 0.0 0.0 0.0019 0.0705 0.1825 0.3032 0.5274 0.6729 0.7892 0.7273 0.5868 0.526 0.4001 0.3681 0.0875 0.0028 0.0 0.0 0.0)
