JAN_15732740
Max_kW_DU = 2595.04
Max_kW_SA = 2549.12
Max_kW_DO = 2550.24
----------------------------------------
New "Loadshape.UGMT_DU" 24 1.0 mult=(0.0 0.0 0.0 0.0 0.0 0.0 0.0 0.0178 0.2219 0.3879 0.528 0.6198 0.7058 0.7052 0.6945 0.5694 0.4702 0.393 0.223 0.1189 0.0071 0.0 0.0 0.0)
New "Loadshape.UGMT_SA" 24 1.0 mult=(0.0 0.0 0.0 0.0 0.0 0.0 0.0 0.0098 0.0688 0.3467 0.5782 0.6741 0.7498 0.717 0.7693 0.6823 0.5643 0.3556 0.3316 0.1493 0.0062 0.0 0.0 0.0)
New "Loadshape.UGMT_DO" 24 1.0 mult=(0.0 0.0 0.0 0.0 0.0 0.0 0.0 0.0302 0.2456 0.3827 0.5058 0.7608 0.8614 0.9217 0.7902 0.687 0.6855 0.3798 0.2408 0.09 0.0046 0.0 0.0 0.0)
