JUN_15732740
Max_kW_DU = 1699.04
Max_kW_SA = 1707.44
Max_kW_DO = 1701.28
----------------------------------------
New "Loadshape.UGMT_DU" 24 1.0 mult=(0.0 0.0 0.0 0.0 0.0 0.0 0.0 0.0 0.0051 0.1877 0.4731 0.6615 0.7767 0.8252 0.8146 0.7849 0.7355 0.5883 0.2494 0.004 0.0 0.0 0.0 0.0)
New "Loadshape.UGMT_SA" 24 1.0 mult=(0.0 0.0 0.0 0.0 0.0 0.0 0.0 0.0 0.0051 0.1479 0.4655 0.7112 0.7976 0.8495 0.885 0.8917 0.7804 0.5956 0.268 0.0044 0.0 0.0 0.0 0.0)
New "Loadshape.UGMT_DO" 24 1.0 mult=(0.0 0.0 0.0 0.0 0.0 0.0 0.0 0.0 0.0069 0.2153 0.4688 0.6643 0.7935 0.8581 0.9296 0.7526 0.8471 0.6224 0.2917 0.005 0.0 0.0 0.0 0.0)
