MAI_15732740
Max_kW_DU = 1886.64
Max_kW_SA = 1821.12
Max_kW_DO = 1834.0
----------------------------------------
New "Loadshape.UGMT_DU" 24 1.0 mult=(0.0 0.0 0.0 0.0 0.0 0.0 0.0 0.0 0.019 0.2286 0.4608 0.6544 0.793 0.812 0.7716 0.7578 0.7042 0.5431 0.227 0.0052 0.0 0.0 0.0 0.0)
New "Loadshape.UGMT_SA" 24 1.0 mult=(0.0 0.0 0.0 0.0 0.0 0.0 0.0 0.0 0.0209 0.3179 0.5668 0.7575 0.803 0.8857 0.9645 0.9329 0.8766 0.7282 0.3167 0.0057 0.0 0.0 0.0 0.0)
New "Loadshape.UGMT_DO" 24 1.0 mult=(0.0 0.0 0.0 0.0 0.0 0.0 0.0 0.0 0.0132 0.2056 0.5514 0.8498 0.9516 0.9333 0.9241 0.9008 0.8355 0.5729 0.2373 0.0043 0.0 0.0 0.0 0.0)
