MAR_15732740
Max_kW_DU = 2269.12
Max_kW_SA = 2246.72
Max_kW_DO = 2109.52
----------------------------------------
New "Loadshape.UGMT_DU" 24 1.0 mult=(0.0 0.0 0.0 0.0 0.0 0.0 0.0 0.0 0.0415 0.2024 0.4158 0.6143 0.7403 0.8126 0.7998 0.7539 0.6082 0.3831 0.1898 0.04 0.0001 0.0 0.0 0.0)
New "Loadshape.UGMT_SA" 24 1.0 mult=(0.0 0.0 0.0 0.0 0.0 0.0 0.0 0.0002 0.0583 0.2107 0.4824 0.6467 0.7435 0.7996 0.8175 0.6187 0.5415 0.4249 0.1747 0.0378 0.0001 0.0 0.0 0.0)
New "Loadshape.UGMT_DO" 24 1.0 mult=(0.0 0.0 0.0 0.0 0.0 0.0 0.0 0.0003 0.0468 0.2868 0.5637 0.7315 0.6874 0.6455 0.635 0.7161 0.5619 0.4494 0.2404 0.0283 0.0 0.0 0.0 0.0)
