NOV_15732740
Max_kW_DU = 2633.68
Max_kW_SA = 2511.6
Max_kW_DO = 2639.84
----------------------------------------
New "Loadshape.UGMT_DU" 24 1.0 mult=(0.0 0.0 0.0 0.0 0.0 0.0 0.02 0.1526 0.3943 0.6035 0.7104 0.7941 0.7794 0.7358 0.647 0.571 0.5194 0.3464 0.1319 0.0034 0.0 0.0 0.0 0.0)
New "Loadshape.UGMT_SA" 24 1.0 mult=(0.0 0.0 0.0 0.0 0.0 0.0 0.0196 0.1616 0.3808 0.7068 0.7514 0.7726 0.7492 0.7988 0.7114 0.668 0.5519 0.3868 0.0992 0.002 0.0 0.0 0.0 0.0)
New "Loadshape.UGMT_DO" 24 1.0 mult=(0.0 0.0 0.0 0.0 0.0 0.0 0.0126 0.1637 0.4064 0.5571 0.715 0.7332 0.7901 0.7968 0.672 0.608 0.4979 0.3514 0.1199 0.0037 0.0 0.0 0.0 0.0)
