OUT_15732740
Max_kW_DU = 2266.32
Max_kW_SA = 0.0
Max_kW_DO = 1062.88
----------------------------------------
New "Loadshape.UGMT_DU" 24 1.0 mult=(0.0 0.0 0.0 0.0 0.0 0.0 0.0 0.0018 0.0068 0.0137 0.0254 0.0435 0.0524 0.0555 0.0597 0.0601 0.0355 0.0293 0.0049 0.0 0.0 0.0 0.0 0.0)
New "Loadshape.UGMT_SA" 24 1.0 mult=(nan nan nan nan nan nan nan nan nan nan nan nan nan nan nan nan nan nan nan nan nan nan nan nan)
New "Loadshape.UGMT_DO" 24 1.0 mult=(0.0 0.0 0.0 0.0 0.0 0.0 0.0 0.0 0.0 0.0272 0.0436 0.1396 0.2 0.1368 0.0394 0.0065 0.0192 0.037 0.012 0.0 0.0 0.0 0.0 0.0)
