SET_15732740
Max_kW_DU = 2493.68
Max_kW_SA = 2464.56
Max_kW_DO = 2377.76
----------------------------------------
New "Loadshape.UGMT_DU" 24 1.0 mult=(0.0 0.0 0.0 0.0 0.0 0.0 0.0001 0.0933 0.4075 0.5637 0.6714 0.7516 0.7686 0.7726 0.7343 0.6794 0.5433 0.3471 0.0627 0.0 0.0 0.0 0.0 0.0)
New "Loadshape.UGMT_SA" 24 1.0 mult=(0.0 0.0 0.0 0.0 0.0 0.0 0.0001 0.0897 0.3899 0.6514 0.8336 0.9269 0.9555 0.934 0.8786 0.8161 0.6329 0.3107 0.0628 0.0 0.0 0.0 0.0 0.0)
New "Loadshape.UGMT_DO" 24 1.0 mult=(0.0 0.0 0.0 0.0 0.0 0.0 0.0001 0.0815 0.46 0.7784 0.8752 0.918 0.9468 0.8976 0.8676 0.8132 0.6461 0.421 0.0558 0.0 0.0 0.0 0.0 0.0)
