ABR_90022428
Max_kW_DU = 982.8
Max_kW_SA = 982.8
Max_kW_DO = 982.8
----------------------------------------
New "Loadshape.UGMT_DU" 24 1.0 mult=(0.8853 0.9159 0.8969 0.8845 0.8419 0.8228 0.8234 0.8277 0.8716 0.8968 0.9075 0.9095 0.9105 0.9225 0.9224 0.9225 0.9225 0.9085 0.9225 0.9222 0.9229 0.916 0.8675 0.9065)
New "Loadshape.UGMT_SA" 24 1.0 mult=(0.9265 0.9256 0.8961 0.8933 0.893 0.8933 0.8944 0.8981 0.934 0.935 0.9347 0.9354 0.9361 0.9357 0.9368 0.8742 0.9234 0.9371 0.8882 0.8841 0.8841 0.8246 0.8892 0.8885)
New "Loadshape.UGMT_DO" 24 1.0 mult=(0.8885 0.826 0.6889 0.6889 0.6885 0.6889 0.6889 0.6889 0.8653 0.8882 0.8889 0.8885 0.8882 0.8889 0.8885 0.8885 0.8116 0.8872 0.8872 0.8879 0.8868 0.8872 0.8202 0.8868)
