AGO_90022428
Max_kW_DU = 730.8
Max_kW_SA = 720.72
Max_kW_DO = 730.8
----------------------------------------
New "Loadshape.UGMT_DU" 24 1.0 mult=(0.5891 0.5646 0.5693 0.5806 0.5941 0.5944 0.5947 0.5945 0.5961 0.6003 0.5858 0.5602 0.5248 0.5139 0.5002 0.5474 0.5944 0.5937 0.5857 0.5727 0.5732 0.5689 0.5759 0.5763)
New "Loadshape.UGMT_SA" 24 1.0 mult=(0.5816 0.5816 0.581 0.5816 0.581 0.5816 0.5816 0.5828 0.5845 0.5839 0.6206 0.6876 0.6859 0.5932 0.5822 0.5839 0.6474 0.6894 0.6882 0.6876 0.6241 0.5816 0.6026 0.6894)
New "Loadshape.UGMT_DO" 24 1.0 mult=(0.677 0.5793 0.5741 0.5747 0.5753 0.5741 0.5753 0.5741 0.5753 0.596 0.7454 0.6753 0.6207 0.5713 0.5718 0.5954 0.677 0.6057 0.4575 0.3874 0.596 0.6816 0.6833 0.6833)
