ANUAL_90022428
Max_kW_DU = 1013.04
Max_kW_SA = 1009.68
Max_kW_DO = 1009.68
----------------------------------------
New "Loadshape.UGMT_DU" 24 1.0 mult=(0.5723 0.5744 0.5684 0.5678 0.5622 0.5595 0.557 0.56 0.5665 0.5892 0.5974 0.588 0.5767 0.5747 0.5693 0.5747 0.566 0.5697 0.5634 0.5573 0.5573 0.5519 0.5537 0.5622)
New "Loadshape.UGMT_SA" 24 1.0 mult=(0.5671 0.57 0.5697 0.5644 0.5621 0.5619 0.5618 0.567 0.5705 0.5783 0.5793 0.5603 0.5477 0.5299 0.5254 0.5409 0.5825 0.5956 0.5942 0.5754 0.5778 0.592 0.5928 0.58)
New "Loadshape.UGMT_DO" 24 1.0 mult=(0.6003 0.5962 0.5858 0.5824 0.5757 0.5709 0.5692 0.5587 0.5635 0.5831 0.6075 0.5966 0.5947 0.5836 0.5865 0.5906 0.5956 0.5979 0.5783 0.5713 0.5976 0.6091 0.6013 0.5955)
