DEZ_90022428
Max_kW_DU = 724.08
Max_kW_SA = 719.04
Max_kW_DO = 722.4
----------------------------------------
New "Loadshape.UGMT_DU" 24 1.0 mult=(0.613 0.6109 0.6186 0.6188 0.6193 0.6189 0.5804 0.5757 0.591 0.7103 0.7359 0.7101 0.6986 0.694 0.6747 0.6527 0.6044 0.6304 0.6577 0.644 0.6029 0.5703 0.535 0.5512)
New "Loadshape.UGMT_SA" 24 1.0 mult=(0.6271 0.6271 0.628 0.628 0.629 0.629 0.6299 0.6299 0.6065 0.6192 0.7187 0.7154 0.6598 0.6308 0.6308 0.6318 0.6864 0.7145 0.7023 0.6304 0.6332 0.6346 0.6346 0.635)
New "Loadshape.UGMT_DO" 24 1.0 mult=(0.62 0.6084 0.5484 0.5484 0.5484 0.5484 0.5484 0.5488 0.5735 0.6349 0.6726 0.7195 0.7414 0.7233 0.6498 0.6447 0.6656 0.7293 0.647 0.7293 0.7307 0.7316 0.7814 0.8153)
