FEV_90022428
Max_kW_DU = 1013.04
Max_kW_SA = 1009.68
Max_kW_DO = 1009.68
----------------------------------------
New "Loadshape.UGMT_DU" 24 1.0 mult=(0.7672 0.7481 0.705 0.7048 0.7047 0.7049 0.7046 0.7433 0.7984 0.8222 0.8371 0.8371 0.7889 0.7743 0.734 0.7328 0.7323 0.7323 0.6899 0.7114 0.7168 0.7689 0.8082 0.7934)
New "Loadshape.UGMT_SA" 24 1.0 mult=(0.7849 0.7845 0.7837 0.7146 0.6859 0.6834 0.6801 0.7666 0.775 0.7824 0.7121 0.5337 0.5349 0.5337 0.5715 0.6951 0.7392 0.7808 0.8344 0.6448 0.7812 0.8548 0.8898 0.9147)
New "Loadshape.UGMT_DO" 24 1.0 mult=(0.9285 0.9276 0.926 0.9255 0.874 0.8623 0.8619 0.8615 0.8619 0.8594 0.9276 0.9272 0.9272 0.9276 0.9272 0.9268 0.9268 0.9272 0.9272 0.9268 0.9268 0.9268 0.9101 0.8611)
