JAN_90022428
Max_kW_DU = 997.92
Max_kW_SA = 1002.96
Max_kW_DO = 997.92
----------------------------------------
New "Loadshape.UGMT_DU" 24 1.0 mult=(0.8277 0.8338 0.8277 0.8275 0.8279 0.8287 0.8294 0.8299 0.838 0.8563 0.8476 0.8523 0.8364 0.8266 0.8246 0.8251 0.7845 0.8209 0.7993 0.7548 0.7756 0.7213 0.7648 0.8331)
New "Loadshape.UGMT_SA" 24 1.0 mult=(0.8367 0.8358 0.835 0.8371 0.8379 0.8375 0.8379 0.8388 0.8388 0.8379 0.7684 0.7018 0.6604 0.6595 0.66 0.6612 0.8157 0.8647 0.9091 0.9095 0.9075 0.9075 0.9066 0.892)
New "Loadshape.UGMT_DO" 24 1.0 mult=(0.8813 0.8241 0.8603 0.8589 0.862 0.863 0.8673 0.8684 0.8697 0.8704 0.8724 0.8539 0.8822 0.8811 0.8808 0.8811 0.8811 0.8801 0.8805 0.8801 0.8805 0.8805 0.8791 0.8788)
