JUL_90022428
Max_kW_DU = 719.04
Max_kW_SA = 423.36
Max_kW_DO = 423.36
----------------------------------------
New "Loadshape.UGMT_DU" 24 1.0 mult=(0.553 0.5512 0.5508 0.5511 0.5248 0.5235 0.5238 0.5237 0.5237 0.5362 0.5465 0.5056 0.4791 0.495 0.4939 0.4971 0.4988 0.5158 0.5395 0.5516 0.5514 0.5518 0.5254 0.5235)
New "Loadshape.UGMT_SA" 24 1.0 mult=(0.7153 0.7153 0.7698 0.7698 0.769 0.7714 0.769 0.7714 0.769 0.7706 0.7706 0.7698 0.7786 0.773 0.7738 0.7714 0.773 0.7738 0.773 0.7738 0.773 0.7738 0.7722 0.7976)
New "Loadshape.UGMT_DO" 24 1.0 mult=(0.9675 0.9706 0.969 0.8357 0.769 0.7706 0.769 0.7698 0.6381 0.573 0.573 0.6214 0.6111 0.6206 0.7516 0.7524 0.7048 0.573 0.7198 0.9698 0.9706 0.9714 0.9698 0.9706)
