JUN_90022428
Max_kW_DU = 720.72
Max_kW_SA = 720.72
Max_kW_DO = 720.72
----------------------------------------
New "Loadshape.UGMT_DU" 24 1.0 mult=(0.7118 0.6936 0.6785 0.682 0.6856 0.6856 0.6862 0.6857 0.6863 0.7018 0.6871 0.6731 0.6676 0.6825 0.6823 0.737 0.7443 0.7436 0.7336 0.7085 0.7095 0.7051 0.7017 0.7174)
New "Loadshape.UGMT_SA" 24 1.0 mult=(0.7417 0.7826 0.7815 0.7809 0.7803 0.7786 0.7791 0.7786 0.778 0.7325 0.8258 0.8875 0.8834 0.8135 0.7844 0.8566 0.8846 0.9575 0.9814 0.9242 0.8829 0.8817 0.8561 0.8182)
New "Loadshape.UGMT_DO" 24 1.0 mult=(0.884 0.8823 0.8817 0.8805 0.88 0.8794 0.8788 0.877 0.8765 0.8176 0.7791 0.7879 0.778 0.7314 0.6783 0.6981 0.778 0.778 0.7751 0.7057 0.6777 0.6783 0.6789 0.6789)
