MAI_90022428
Max_kW_DU = 722.4
Max_kW_SA = 712.32
Max_kW_DO = 710.64
----------------------------------------
New "Loadshape.UGMT_DU" 24 1.0 mult=(0.9628 0.9833 0.9829 0.983 0.9835 0.9819 0.9624 0.9628 0.9623 0.9726 0.9839 0.9839 0.9785 0.9653 0.9433 0.9597 0.9554 0.9635 0.9512 0.9609 0.9635 0.9633 0.9634 0.9628)
New "Loadshape.UGMT_SA" 24 1.0 mult=(0.9947 0.9953 0.9941 0.9941 0.9941 0.9941 0.9935 0.9953 0.9935 0.9941 0.9941 0.9947 0.9941 0.9947 0.9941 0.9947 0.9953 0.9953 0.9959 0.9959 0.9947 0.9959 0.9953 0.9953)
New "Loadshape.UGMT_DO" 24 1.0 mult=(0.9959 0.9965 0.997 0.9959 0.9976 0.9959 0.9976 0.9959 0.997 0.9965 0.997 0.9976 0.997 0.997 0.9976 0.997 0.9976 0.9982 0.9976 0.9976 0.9988 0.997 0.997 0.997)
