MAR_90022428
Max_kW_DU = 982.8
Max_kW_SA = 977.76
Max_kW_DO = 982.8
----------------------------------------
New "Loadshape.UGMT_DU" 24 1.0 mult=(0.7919 0.7942 0.7901 0.79 0.7753 0.7687 0.7628 0.7683 0.8006 0.8231 0.823 0.8107 0.8209 0.8019 0.8006 0.8007 0.7554 0.6916 0.7118 0.7595 0.7559 0.743 0.7672 0.7614)
New "Loadshape.UGMT_SA" 24 1.0 mult=(0.7546 0.7122 0.6443 0.6452 0.6439 0.6443 0.6443 0.6443 0.7182 0.7156 0.735 0.7367 0.7225 0.6937 0.7363 0.7367 0.771 0.802 0.802 0.8011 0.802 0.8015 0.7998 0.6843)
New "Loadshape.UGMT_DO" 24 1.0 mult=(0.7974 0.7974 0.7684 0.7979 0.7979 0.7979 0.797 0.7974 0.7979 0.7974 0.7974 0.7983 0.7979 0.797 0.7979 0.7979 0.797 0.797 0.7974 0.5637 0.7479 0.7974 0.7974 0.7966)
