NOV_90022428
Max_kW_DU = 720.72
Max_kW_SA = 727.44
Max_kW_DO = 725.76
----------------------------------------
New "Loadshape.UGMT_DU" 24 1.0 mult=(0.6433 0.6481 0.6436 0.6433 0.6429 0.6419 0.6408 0.6426 0.6712 0.6996 0.7296 0.6977 0.6801 0.6809 0.6631 0.6623 0.6685 0.7237 0.6705 0.634 0.6257 0.5908 0.559 0.5751)
New "Loadshape.UGMT_SA" 24 1.0 mult=(0.7546 0.7731 0.7719 0.7725 0.7725 0.7719 0.7719 0.7719 0.6236 0.6894 0.6068 0.455 0.5104 0.5214 0.5214 0.5191 0.5167 0.4209 0.4163 0.4186 0.4555 0.6674 0.537 0.5294)
New "Loadshape.UGMT_DO" 24 1.0 mult=(0.6615 0.6719 0.673 0.6725 0.6713 0.6701 0.6701 0.6678 0.6071 0.5671 0.6655 0.5399 0.5098 0.5376 0.5642 0.5654 0.5666 0.5654 0.5677 0.5671 0.5671 0.566 0.5532 0.5538)
