OUT_90022428
Max_kW_DU = 703.92
Max_kW_SA = 724.08
Max_kW_DO = 717.36
----------------------------------------
New "Loadshape.UGMT_DU" 24 1.0 mult=(0.5841 0.5913 0.5688 0.5779 0.5642 0.556 0.5673 0.5801 0.5425 0.5709 0.5975 0.5917 0.5636 0.5951 0.6257 0.6062 0.5905 0.6133 0.6013 0.5821 0.5679 0.568 0.5911 0.5538)
New "Loadshape.UGMT_SA" 24 1.0 mult=(0.4948 0.5394 0.5418 0.5418 0.5418 0.5418 0.5412 0.5052 0.5771 0.6752 0.6908 0.7146 0.6224 0.6299 0.5302 0.5151 0.6589 0.6543 0.5713 0.6549 0.6439 0.6549 0.6537 0.6537)
New "Loadshape.UGMT_DO" 24 1.0 mult=(0.6593 0.6575 0.6253 0.6244 0.6187 0.5616 0.5316 0.3789 0.3073 0.6112 0.6867 0.6272 0.6281 0.6286 0.6304 0.6304 0.6923 0.7077 0.6337 0.6295 0.5794 0.6304 0.6295 0.6295)
