SET_90022428
Max_kW_DU = 534.24
Max_kW_SA = 423.36
Max_kW_DO = 421.68
----------------------------------------
New "Loadshape.UGMT_DU" 24 1.0 mult=(0.6542 0.7407 0.7456 0.7207 0.7203 0.7183 0.7345 0.7035 0.5875 0.6503 0.7122 0.7046 0.7195 0.6905 0.7055 0.715 0.6855 0.6752 0.649 0.5786 0.6147 0.645 0.6581 0.6818)
New "Loadshape.UGMT_SA" 24 1.0 mult=(0.7746 0.8214 0.9492 0.95 0.9508 0.9484 0.95 0.9476 0.9468 0.946 0.946 0.9437 0.8762 0.7429 0.6683 0.8825 0.946 0.9437 0.9444 0.9341 0.8405 0.9381 0.9357 0.7325)
New "Loadshape.UGMT_DO" 24 1.0 mult=(0.612 0.9193 0.9661 0.9651 0.9651 0.9631 0.9612 0.9602 0.9582 0.9572 0.9542 0.9522 0.9373 0.7301 0.8566 0.9193 0.9074 0.8835 0.6653 0.749 0.9432 0.9363 0.8436 0.512)
