3013754821
Max_kW_DU = 268.91
Max_kW_SA = 262.4
Max_kW_DO = 257.78
----------------------------------------
New "Loadshape.UGMT_DU" 24 1.0 mult=(0.0 0.0 0.0 0.0 0.0 0.0 0.0197 0.1193 0.2953 0.4833 0.6165 0.7146 0.728 0.545 0.5416 0.434 0.3003 0.1606 0.0436 0.0035 0.0 0.0 0.0 0.0)
New "Loadshape.UGMT_SA" 24 1.0 mult=(0.0 0.0 0.0 0.0 0.0 0.0 0.0153 0.116 0.2356 0.3593 0.391 0.4114 0.3723 0.4968 0.4042 0.3606 0.2329 0.0995 0.0127 0.0 0.0 0.0 0.0 0.0)
New "Loadshape.UGMT_DO" 24 1.0 mult=(0.0 0.0 0.0 0.0 0.0 0.0 0.017 0.0848 0.1692 0.2668 0.4907 0.596 0.5429 0.5359 0.4733 0.3963 0.3167 0.1742 0.0584 0.006 0.0 0.0 0.0 0.0)
