3013754821
Max_kW_DU = 302.19
Max_kW_SA = 294.53
Max_kW_DO = 280.77
----------------------------------------
New "Loadshape.UGMT_DU" 24 1.0 mult=(0.0 0.0 0.0 0.0 0.0 0.0 0.0093 0.1231 0.3112 0.4418 0.5454 0.5538 0.5149 0.5428 0.4598 0.3516 0.2551 0.1354 0.0206 0.0 0.0 0.0 0.0 0.0)
New "Loadshape.UGMT_SA" 24 1.0 mult=(0.0 0.0 0.0 0.0 0.0 0.0 0.0059 0.0893 0.1974 0.2908 0.4149 0.3801 0.4941 0.3938 0.3093 0.2994 0.2553 0.0934 0.0139 0.0 0.0 0.0 0.0 0.0)
New "Loadshape.UGMT_DO" 24 1.0 mult=(0.0 0.0 0.0 0.0 0.0 0.0 0.0065 0.0926 0.1956 0.285 0.4702 0.3857 0.462 0.5549 0.4289 0.3493 0.1524 0.089 0.0411 0.0001 0.0 0.0 0.0 0.0)
