3013754821
Max_kW_DU = 1687.56
Max_kW_SA = 1710.66
Max_kW_DO = 1673.28
----------------------------------------
New "Loadshape.UGMT_DU" 24 1.0 mult=(0.0 0.0 0.0 0.0 0.0 0.0011 0.0496 0.2472 0.4769 0.645 0.7137 0.7573 0.7219 0.7157 0.6215 0.5203 0.298 0.1524 0.0313 0.0001 0.0 0.0 0.0 0.0)
New "Loadshape.UGMT_SA" 24 1.0 mult=(0.0 0.0 0.0 0.0 0.0 0.0016 0.0347 0.186 0.3839 0.5836 0.6817 0.7537 0.8472 0.7376 0.6927 0.4146 0.4499 0.1909 0.0216 0.0 0.0 0.0 0.0 0.0)
New "Loadshape.UGMT_DO" 24 1.0 mult=(0.0 0.0 0.0 0.0 0.0 0.0019 0.0557 0.2257 0.4706 0.6495 0.719 0.6472 0.712 0.6289 0.8493 0.5911 0.3695 0.1463 0.0187 0.0 0.0 0.0 0.0 0.0)
