3013754821
Max_kW_DU = 1720.32
Max_kW_SA = 1690.5
Max_kW_DO = 1313.34
----------------------------------------
New "Loadshape.UGMT_DU" 24 1.0 mult=(0.0 0.0 0.0 0.0 0.0 0.0 0.0093 0.102 0.2554 0.4231 0.5405 0.5668 0.5525 0.5114 0.4097 0.2779 0.1739 0.0487 0.0006 0.0 0.0 0.0 0.0 0.0)
New "Loadshape.UGMT_SA" 24 1.0 mult=(0.0 0.0 0.0 0.0 0.0 0.0 0.0086 0.113 0.2908 0.4863 0.6063 0.6411 0.6298 0.6272 0.4834 0.3249 0.2005 0.0578 0.0007 0.0 0.0 0.0 0.0 0.0)
New "Loadshape.UGMT_DO" 24 1.0 mult=(0.0 0.0 0.0 0.0 0.0 0.0 0.009 0.1009 0.2525 0.457 0.578 0.6012 0.64 0.5827 0.4745 0.2753 0.1525 0.0608 0.0002 0.0 0.0 0.0 0.0 0.0)
