3013754821
Max_kW_DU = 311.75
Max_kW_SA = 288.75
Max_kW_DO = 282.14
----------------------------------------
New "Loadshape.UGMT_DU" 24 1.0 mult=(0.0 0.0 0.0 0.0 0.0 0.0 0.0 0.0314 0.348 0.615 0.7755 0.8568 0.8611 0.8238 0.7398 0.5735 0.3036 0.0238 0.0 0.0 0.0 0.0 0.0 0.0)
New "Loadshape.UGMT_SA" 24 1.0 mult=(0.0 0.0 0.0 0.0 0.0 0.0 0.0 0.0358 0.3772 0.6692 0.8525 0.9358 0.9478 0.9044 0.7949 0.6131 0.3244 0.0281 0.0 0.0 0.0 0.0 0.0 0.0)
New "Loadshape.UGMT_DO" 24 1.0 mult=(0.0 0.0 0.0 0.0 0.0 0.0 0.0 0.0335 0.3805 0.6825 0.8643 0.9596 0.9256 0.8583 0.7528 0.5969 0.2869 0.0351 0.0 0.0 0.0 0.0 0.0 0.0)
