3013754821
Max_kW_DU = 1691.34
Max_kW_SA = 1696.8
Max_kW_DO = 1574.16
----------------------------------------
New "Loadshape.UGMT_DU" 24 1.0 mult=(0.0 0.0 0.0 0.0 0.0 0.0001 0.0394 0.1885 0.4216 0.609 0.6733 0.7095 0.6825 0.5813 0.5152 0.3431 0.201 0.068 0.0033 0.0 0.0 0.0 0.0 0.0)
New "Loadshape.UGMT_SA" 24 1.0 mult=(0.0 0.0 0.0 0.0 0.0 0.0003 0.0427 0.2334 0.4613 0.6319 0.8036 0.8519 0.7349 0.5685 0.4194 0.3584 0.2214 0.071 0.0025 0.0 0.0 0.0 0.0 0.0)
New "Loadshape.UGMT_DO" 24 1.0 mult=(0.0 0.0 0.0 0.0 0.0 0.0001 0.0363 0.1186 0.2673 0.3491 0.4461 0.5743 0.5747 0.4006 0.4404 0.4157 0.2793 0.093 0.0099 0.0 0.0 0.0 0.0 0.0)
