3013754821
Max_kW_DU = 343.67
Max_kW_SA = 320.15
Max_kW_DO = 315.11
----------------------------------------
New "Loadshape.UGMT_DU" 24 1.0 mult=(0.0 0.0 0.0 0.0 0.0 0.0 0.0028 0.1329 0.3519 0.5477 0.6723 0.6991 0.6491 0.5657 0.5634 0.4345 0.2567 0.0572 0.0004 0.0 0.0 0.0 0.0 0.0)
New "Loadshape.UGMT_SA" 24 1.0 mult=(0.0 0.0 0.0 0.0 0.0 0.0 0.0011 0.0856 0.3341 0.6095 0.8251 0.8085 0.8257 0.7505 0.694 0.5579 0.3557 0.0908 0.0003 0.0 0.0 0.0 0.0 0.0)
New "Loadshape.UGMT_DO" 24 1.0 mult=(0.0 0.0 0.0 0.0 0.0 0.0 0.0028 0.1853 0.4623 0.7118 0.7385 0.8667 0.8048 0.7173 0.7473 0.6034 0.3683 0.0882 0.0006 0.0 0.0 0.0 0.0 0.0)
