3013754821
Max_kW_DU = 312.17
Max_kW_SA = 307.76
Max_kW_DO = 292.01
----------------------------------------
New "Loadshape.UGMT_DU" 24 1.0 mult=(0.0 0.0 0.0 0.0 0.0 0.0 0.0 0.0389 0.3521 0.6153 0.7732 0.8399 0.8266 0.763 0.6354 0.4465 0.2074 0.0172 0.0 0.0 0.0 0.0 0.0 0.0)
New "Loadshape.UGMT_SA" 24 1.0 mult=(0.0 0.0 0.0 0.0 0.0 0.0 0.0 0.0348 0.3308 0.6385 0.7984 0.9526 0.9373 0.9064 0.7891 0.5918 0.2718 0.0144 0.0 0.0 0.0 0.0 0.0 0.0)
New "Loadshape.UGMT_DO" 24 1.0 mult=(0.0 0.0 0.0 0.0 0.0 0.0 0.0 0.04 0.3927 0.6382 0.777 0.9406 0.9852 0.8886 0.761 0.5636 0.2242 0.0143 0.0 0.0 0.0 0.0 0.0 0.0)
