3013754821
Max_kW_DU = 299.25
Max_kW_SA = 290.64
Max_kW_DO = 293.79
----------------------------------------
New "Loadshape.UGMT_DU" 24 1.0 mult=(0.0 0.0 0.0 0.0 0.0 0.0 0.0007 0.0913 0.4218 0.6608 0.8073 0.8658 0.8262 0.8046 0.6647 0.4766 0.2597 0.0235 0.0 0.0 0.0 0.0 0.0 0.0)
New "Loadshape.UGMT_SA" 24 1.0 mult=(0.0 0.0 0.0 0.0 0.0 0.0 0.0004 0.0933 0.3188 0.4605 0.598 0.6496 0.6862 0.5664 0.3714 0.3401 0.1789 0.0228 0.0 0.0 0.0 0.0 0.0 0.0)
New "Loadshape.UGMT_DO" 24 1.0 mult=(0.0 0.0 0.0 0.0 0.0 0.0 0.0001 0.1024 0.4111 0.6052 0.7706 0.7906 0.7518 0.6348 0.5249 0.4509 0.2227 0.0209 0.0 0.0 0.0 0.0 0.0 0.0)
