3013754821
Max_kW_DU = 1693.02
Max_kW_SA = 1626.66
Max_kW_DO = 1687.56
----------------------------------------
New "Loadshape.UGMT_DU" 24 1.0 mult=(0.0 0.0 0.0 0.0 0.0 0.0025 0.0689 0.2659 0.542 0.678 0.7309 0.6745 0.6802 0.6751 0.6053 0.4738 0.3486 0.1245 0.0103 0.0 0.0 0.0 0.0 0.0)
New "Loadshape.UGMT_SA" 24 1.0 mult=(0.0 0.0 0.0 0.0 0.0 0.0021 0.0681 0.2513 0.4981 0.6699 0.8626 0.7694 0.7173 0.8574 0.8034 0.6211 0.4091 0.135 0.0132 0.0 0.0 0.0 0.0 0.0)
New "Loadshape.UGMT_DO" 24 1.0 mult=(0.0 0.0 0.0 0.0 0.0 0.0023 0.0721 0.3047 0.5383 0.7216 0.8598 0.7662 0.8041 0.8393 0.8065 0.5813 0.381 0.1497 0.0116 0.0 0.0 0.0 0.0 0.0)
