3013754821
Max_kW_DU = 1660.68
Max_kW_SA = 1632.54
Max_kW_DO = 1631.7
----------------------------------------
New "Loadshape.UGMT_DU" 24 1.0 mult=(0.0 0.0 0.0 0.0 0.0 0.0 0.0011 0.0661 0.2268 0.3383 0.4202 0.4666 0.4526 0.3922 0.3193 0.2773 0.1791 0.0438 0.0003 0.0 0.0 0.0 0.0 0.0)
New "Loadshape.UGMT_SA" 24 1.0 mult=(0.0 0.0 0.0 0.0 0.0 0.0 0.0009 0.0819 0.2703 0.4605 0.6306 0.71 0.6875 0.7438 0.5796 0.4618 0.2623 0.0596 0.0003 0.0 0.0 0.0 0.0 0.0)
New "Loadshape.UGMT_DO" 24 1.0 mult=(0.0 0.0 0.0 0.0 0.0 0.0 0.0011 0.0893 0.2738 0.4945 0.6208 0.666 0.5504 0.4627 0.3972 0.3186 0.1794 0.0497 0.0002 0.0 0.0 0.0 0.0 0.0)
