3013754821
Max_kW_DU = 1720.32
Max_kW_SA = 1696.8
Max_kW_DO = 1687.56
----------------------------------------
New "Loadshape.UGMT_DU" 24 1.0 mult=(0.0 0.0 0.0 0.0 0.0 0.0002 0.0113 0.0675 0.1714 0.2505 0.2944 0.3047 0.2973 0.272 0.2361 0.1767 0.1127 0.0341 0.0024 0.0 0.0 0.0 0.0 0.0)
New "Loadshape.UGMT_SA" 24 1.0 mult=(0.0 0.0 0.0 0.0 0.0 0.0002 0.0112 0.0702 0.1698 0.2564 0.329 0.3409 0.3236 0.3145 0.2581 0.2026 0.1235 0.0349 0.0019 0.0 0.0 0.0 0.0 0.0)
New "Loadshape.UGMT_DO" 24 1.0 mult=(0.0 0.0 0.0 0.0 0.0 0.0002 0.0107 0.0628 0.1514 0.2304 0.2875 0.3043 0.2944 0.2635 0.2432 0.1888 0.1147 0.0382 0.0036 0.0001 0.0 0.0 0.0 0.0)
