3013754821
Max_kW_DU = 346.82
Max_kW_SA = 309.54
Max_kW_DO = 289.7
----------------------------------------
New "Loadshape.UGMT_DU" 24 1.0 mult=(0.0 0.0 0.0 0.0 0.0 0.0 0.0106 0.1617 0.426 0.6498 0.7558 0.7738 0.7276 0.6676 0.6173 0.5011 0.324 0.1099 0.0074 0.0 0.0 0.0 0.0 0.0)
New "Loadshape.UGMT_SA" 24 1.0 mult=(0.0 0.0 0.0 0.0 0.0 0.0 0.0107 0.165 0.4538 0.6863 0.813 0.8669 0.8549 0.6386 0.595 0.4528 0.2589 0.1098 0.0056 0.0 0.0 0.0 0.0 0.0)
New "Loadshape.UGMT_DO" 24 1.0 mult=(0.0 0.0 0.0 0.0 0.0 0.0 0.0064 0.1361 0.3944 0.5538 0.6594 0.6294 0.4439 0.4609 0.4443 0.3367 0.2603 0.0885 0.0058 0.0 0.0 0.0 0.0 0.0)
