ABR_15639286
Max_kW_DU = 1328.46
Max_kW_SA = 1334.76
Max_kW_DO = 1360.8
----------------------------------------
New "Loadshape.UGMT_DU" 24 1.0 mult=(0.0 0.0 0.0 0.0 0.0 0.0 0.0 0.0046 0.0969 0.2607 0.4149 0.5741 0.6946 0.6745 0.702 0.5899 0.4411 0.2233 0.0482 0.0003 0.0 0.0 0.0 0.0)
New "Loadshape.UGMT_SA" 24 1.0 mult=(0.0 0.0 0.0 0.0 0.0 0.0 0.0 0.0008 0.0527 0.1607 0.3072 0.5322 0.6678 0.6876 0.5985 0.5885 0.4584 0.2247 0.051 0.0008 0.0 0.0 0.0 0.0)
New "Loadshape.UGMT_DO" 24 1.0 mult=(0.0 0.0 0.0 0.0 0.0 0.0 0.0 0.0019 0.0752 0.2031 0.3438 0.494 0.6325 0.6638 0.5988 0.5221 0.3726 0.1719 0.0383 0.0001 0.0 0.0 0.0 0.0)
