AGO_15639286
Max_kW_DU = 1426.32
Max_kW_SA = 1355.76
Max_kW_DO = 1381.8
----------------------------------------
New "Loadshape.UGMT_DU" 24 1.0 mult=(0.0 0.0 0.0 0.0 0.0 0.0 0.0 0.0004 0.0599 0.2469 0.4704 0.6237 0.7836 0.8358 0.8142 0.7035 0.5052 0.304 0.0948 0.0014 0.0 0.0 0.0 0.0)
New "Loadshape.UGMT_SA" 24 1.0 mult=(0.0 0.0 0.0 0.0 0.0 0.0 0.0 0.0002 0.0458 0.2469 0.4583 0.5692 0.6913 0.6773 0.5078 0.3986 0.4393 0.2501 0.0574 0.0008 0.0 0.0 0.0 0.0)
New "Loadshape.UGMT_DO" 24 1.0 mult=(0.0 0.0 0.0 0.0 0.0 0.0 0.0 0.0002 0.0485 0.1977 0.3076 0.3856 0.5081 0.5063 0.5067 0.4277 0.298 0.1917 0.0514 0.0004 0.0 0.0 0.0 0.0)
