ANUAL_15639286
Max_kW_DU = 1536.78
Max_kW_SA = 1475.46
Max_kW_DO = 1540.14
----------------------------------------
New "Loadshape.UGMT_DU" 24 1.0 mult=(0.0 0.0 0.0 0.0 0.0 0.0 0.0002 0.0156 0.0986 0.2601 0.4414 0.5927 0.6795 0.6984 0.6539 0.5444 0.4097 0.2316 0.0786 0.0099 0.0001 0.0 0.0 0.0)
New "Loadshape.UGMT_SA" 24 1.0 mult=(0.0 0.0 0.0 0.0 0.0 0.0 0.0001 0.0135 0.102 0.2739 0.4688 0.6206 0.6952 0.697 0.65 0.5577 0.4098 0.2424 0.0748 0.0087 0.0 0.0 0.0 0.0)
New "Loadshape.UGMT_DO" 24 1.0 mult=(0.0 0.0 0.0 0.0 0.0 0.0 0.0003 0.0178 0.0949 0.2537 0.428 0.5614 0.6603 0.6775 0.62 0.5236 0.3926 0.218 0.069 0.0078 0.0001 0.0 0.0 0.0)
