DEZ_15639286
Max_kW_DU = 1446.9
Max_kW_SA = 1446.06
Max_kW_DO = 1466.64
----------------------------------------
New "Loadshape.UGMT_DU" 24 1.0 mult=(0.0 0.0 0.0 0.0 0.0 0.0 0.0007 0.0419 0.1783 0.3777 0.596 0.7671 0.8499 0.8897 0.7801 0.6608 0.5924 0.3825 0.1947 0.0441 0.0017 0.0 0.0 0.0)
New "Loadshape.UGMT_SA" 24 1.0 mult=(0.0 0.0 0.0 0.0 0.0 0.0 0.0006 0.0345 0.1609 0.342 0.5931 0.6465 0.6614 0.6306 0.5888 0.5122 0.3721 0.2827 0.1512 0.0343 0.0002 0.0 0.0 0.0)
New "Loadshape.UGMT_DO" 24 1.0 mult=(0.0 0.0 0.0 0.0 0.0 0.0 0.0005 0.0479 0.1497 0.3273 0.5294 0.622 0.7126 0.767 0.664 0.549 0.4813 0.2886 0.1325 0.0317 0.0008 0.0 0.0 0.0)
