FEV_15639286
Max_kW_DU = 1392.72
Max_kW_SA = 1331.82
Max_kW_DO = 1366.68
----------------------------------------
New "Loadshape.UGMT_DU" 24 1.0 mult=(0.0 0.0 0.0 0.0 0.0 0.0 0.0 0.0235 0.1382 0.2836 0.4637 0.5952 0.6458 0.6612 0.5981 0.4444 0.3182 0.225 0.0974 0.0178 0.0 0.0 0.0 0.0)
New "Loadshape.UGMT_SA" 24 1.0 mult=(0.0 0.0 0.0 0.0 0.0 0.0 0.0 0.0224 0.142 0.2936 0.4622 0.7048 0.6753 0.8953 0.8453 0.6998 0.35 0.1402 0.0516 0.0154 0.0 0.0 0.0 0.0)
New "Loadshape.UGMT_DO" 24 1.0 mult=(0.0 0.0 0.0 0.0 0.0 0.0 0.0001 0.0275 0.1436 0.3329 0.4312 0.6268 0.6778 0.5745 0.5745 0.4648 0.4153 0.2099 0.1318 0.0194 0.0 0.0 0.0 0.0)
