JAN_15639286
Max_kW_DU = 1458.24
Max_kW_SA = 1439.76
Max_kW_DO = 1435.98
----------------------------------------
New "Loadshape.UGMT_DU" 24 1.0 mult=(0.0 0.0 0.0 0.0 0.0 0.0 0.001 0.0409 0.1711 0.3206 0.4783 0.6232 0.6832 0.7243 0.5974 0.5236 0.4321 0.2217 0.1109 0.0272 0.0001 0.0 0.0 0.0)
New "Loadshape.UGMT_SA" 24 1.0 mult=(0.0 0.0 0.0 0.0 0.0 0.0 0.0004 0.0373 0.1669 0.3135 0.5773 0.7395 0.8237 0.6141 0.5713 0.5643 0.3956 0.31 0.1173 0.0211 0.0001 0.0 0.0 0.0)
New "Loadshape.UGMT_DO" 24 1.0 mult=(0.0 0.0 0.0 0.0 0.0 0.0 0.0019 0.0624 0.2022 0.3947 0.6308 0.7431 0.7911 0.867 0.675 0.5306 0.3984 0.1793 0.0826 0.0197 0.0 0.0 0.0 0.0)
