JUL_15639286
Max_kW_DU = 1409.94
Max_kW_SA = 1399.86
Max_kW_DO = 1371.72
----------------------------------------
New "Loadshape.UGMT_DU" 24 1.0 mult=(0.0 0.0 0.0 0.0 0.0 0.0 0.0 0.0 0.0378 0.243 0.4657 0.625 0.742 0.7809 0.7615 0.6824 0.4952 0.2269 0.0585 0.0001 0.0 0.0 0.0 0.0)
New "Loadshape.UGMT_SA" 24 1.0 mult=(0.0 0.0 0.0 0.0 0.0 0.0 0.0 0.0 0.0312 0.239 0.4385 0.7216 0.816 0.7845 0.789 0.6691 0.5257 0.2808 0.0534 0.0001 0.0 0.0 0.0 0.0)
New "Loadshape.UGMT_DO" 24 1.0 mult=(0.0 0.0 0.0 0.0 0.0 0.0 0.0 0.0 0.0379 0.2002 0.4038 0.5617 0.7611 0.8137 0.7865 0.6353 0.5231 0.3216 0.0707 0.0002 0.0 0.0 0.0 0.0)
