JUN_15639286
Max_kW_DU = 1315.44
Max_kW_SA = 1317.96
Max_kW_DO = 1311.24
----------------------------------------
New "Loadshape.UGMT_DU" 24 1.0 mult=(0.0 0.0 0.0 0.0 0.0 0.0 0.0 0.0 0.0394 0.2079 0.3963 0.6254 0.7944 0.8202 0.8048 0.6774 0.494 0.2602 0.0405 0.0 0.0 0.0 0.0 0.0)
New "Loadshape.UGMT_SA" 24 1.0 mult=(0.0 0.0 0.0 0.0 0.0 0.0 0.0 0.0 0.0374 0.2494 0.5229 0.7939 0.9234 0.939 0.8969 0.7384 0.5278 0.2942 0.0413 0.0 0.0 0.0 0.0 0.0)
New "Loadshape.UGMT_DO" 24 1.0 mult=(0.0 0.0 0.0 0.0 0.0 0.0 0.0 0.0 0.0303 0.2088 0.4195 0.623 0.8674 0.9475 0.9232 0.7748 0.6035 0.3135 0.0446 0.0 0.0 0.0 0.0 0.0)
