MAI_15639286
Max_kW_DU = 1319.64
Max_kW_SA = 1291.5
Max_kW_DO = 1262.94
----------------------------------------
New "Loadshape.UGMT_DU" 24 1.0 mult=(0.0 0.0 0.0 0.0 0.0 0.0 0.0 0.0006 0.0579 0.2331 0.4441 0.6246 0.7333 0.7856 0.7391 0.6141 0.4423 0.2238 0.0367 0.0 0.0 0.0 0.0 0.0)
New "Loadshape.UGMT_SA" 24 1.0 mult=(0.0 0.0 0.0 0.0 0.0 0.0 0.0 0.0002 0.046 0.2252 0.4985 0.7005 0.7869 0.8588 0.7978 0.743 0.5611 0.2899 0.0406 0.0 0.0 0.0 0.0 0.0)
New "Loadshape.UGMT_DO" 24 1.0 mult=(0.0 0.0 0.0 0.0 0.0 0.0 0.0 0.0005 0.0598 0.2634 0.4913 0.6713 0.8606 0.9633 0.8703 0.6896 0.4326 0.2255 0.0329 0.0 0.0 0.0 0.0 0.0)
