MAR_15639286
Max_kW_DU = 1382.22
Max_kW_SA = 1291.92
Max_kW_DO = 1315.86
----------------------------------------
New "Loadshape.UGMT_DU" 24 1.0 mult=(0.0 0.0 0.0 0.0 0.0 0.0 0.0 0.0105 0.1036 0.2811 0.4898 0.6563 0.7876 0.8169 0.7469 0.5371 0.3876 0.2253 0.0728 0.0062 0.0 0.0 0.0 0.0)
New "Loadshape.UGMT_SA" 24 1.0 mult=(0.0 0.0 0.0 0.0 0.0 0.0 0.0 0.0175 0.1563 0.3855 0.628 0.7228 0.723 0.7086 0.6711 0.5531 0.4287 0.2647 0.1 0.007 0.0 0.0 0.0 0.0)
New "Loadshape.UGMT_DO" 24 1.0 mult=(0.0 0.0 0.0 0.0 0.0 0.0 0.0 0.0085 0.0809 0.2727 0.5968 0.7646 0.7568 0.8237 0.761 0.6056 0.2861 0.2514 0.0724 0.0071 0.0 0.0 0.0 0.0)
