NOV_15639286
Max_kW_DU = 1536.78
Max_kW_SA = 1471.68
Max_kW_DO = 1540.14
----------------------------------------
New "Loadshape.UGMT_DU" 24 1.0 mult=(0.0 0.0 0.0 0.0 0.0 0.0 0.0006 0.0466 0.1705 0.3354 0.5379 0.6935 0.7473 0.7279 0.7115 0.5775 0.4179 0.2584 0.1083 0.0204 0.0 0.0 0.0 0.0)
New "Loadshape.UGMT_SA" 24 1.0 mult=(0.0 0.0 0.0 0.0 0.0 0.0 0.0006 0.0334 0.1678 0.3868 0.6032 0.6211 0.7209 0.7365 0.6614 0.6265 0.4532 0.3296 0.1338 0.0188 0.0 0.0 0.0 0.0)
New "Loadshape.UGMT_DO" 24 1.0 mult=(0.0 0.0 0.0 0.0 0.0 0.0 0.0005 0.037 0.1848 0.3349 0.5451 0.7552 0.7233 0.7381 0.653 0.5764 0.4105 0.2128 0.0515 0.0093 0.0 0.0 0.0 0.0)
