OUT_15639286
Max_kW_DU = 1520.4
Max_kW_SA = 1024.38
Max_kW_DO = 1536.36
----------------------------------------
New "Loadshape.UGMT_DU" 24 1.0 mult=(0.0 0.0 0.0 0.0 0.0 0.0 0.0 0.0211 0.1132 0.2842 0.4729 0.6346 0.6585 0.6231 0.555 0.4689 0.3338 0.1789 0.0634 0.0057 0.0 0.0 0.0 0.0)
New "Loadshape.UGMT_SA" 24 1.0 mult=(0.0 0.0 0.0 0.0 0.0 0.0 0.0 0.0237 0.21 0.4156 0.4484 0.4991 0.6077 0.6305 0.7158 0.3547 0.2227 0.1595 0.0611 0.0068 0.0 0.0 0.0 0.0)
New "Loadshape.UGMT_DO" 24 1.0 mult=(0.0 0.0 0.0 0.0 0.0 0.0 0.0001 0.0231 0.0925 0.2089 0.3717 0.4761 0.6328 0.5702 0.4286 0.4387 0.3497 0.199 0.0707 0.0038 0.0 0.0 0.0 0.0)
