SET_15639286
Max_kW_DU = 1508.22
Max_kW_SA = 1475.46
Max_kW_DO = 1441.86
----------------------------------------
New "Loadshape.UGMT_DU" 24 1.0 mult=(0.0 0.0 0.0 0.0 0.0 0.0 0.0 0.0081 0.1092 0.2953 0.4888 0.648 0.7138 0.7375 0.6914 0.6103 0.4547 0.2798 0.0937 0.0038 0.0 0.0 0.0 0.0)
New "Loadshape.UGMT_SA" 24 1.0 mult=(0.0 0.0 0.0 0.0 0.0 0.0 0.0 0.0086 0.1398 0.3578 0.5864 0.8133 0.9349 0.9341 0.8681 0.7595 0.5438 0.2973 0.093 0.0046 0.0 0.0 0.0 0.0)
New "Loadshape.UGMT_DO" 24 1.0 mult=(0.0 0.0 0.0 0.0 0.0 0.0 0.0 0.0108 0.1145 0.4013 0.6433 0.7408 0.8269 0.8493 0.8082 0.7188 0.5537 0.2977 0.0998 0.0054 0.0 0.0 0.0 0.0)
