ABR_MW-2007A267-02
Max_kW_DU = 2775.72
Max_kW_SA = 2735.12
Max_kW_DO = 2731.19
----------------------------------------
New "Loadshape.UGMT_DU" 24 1.0 mult=(0.7267 0.7413 0.7739 0.7515 0.748 0.7482 0.7456 0.7289 0.7693 0.7521 0.7584 0.7525 0.7457 0.7157 0.7122 0.7038 0.632 0.6841 0.6889 0.7132 0.772 0.7938 0.8311 0.7792)
New "Loadshape.UGMT_SA" 24 1.0 mult=(0.8572 0.8571 0.8854 0.8856 0.8861 0.8861 0.8861 0.8863 0.8197 0.7868 0.7853 0.7842 0.7838 0.7832 0.7832 0.7831 0.7833 0.7837 0.804 0.882 0.827 0.7907 0.7907 0.8057)
New "Loadshape.UGMT_DO" 24 1.0 mult=(0.8378 0.8673 0.8771 0.8774 0.8775 0.8776 0.8778 0.8777 0.8776 0.876 0.8754 0.8172 0.7834 0.8119 0.8212 0.7304 0.6473 0.4792 0.4003 0.4144 0.4858 0.6685 0.8728 0.8747)
