AGO_MW-2007A267-02
Max_kW_DU = 2771.04
Max_kW_SA = 2726.2
Max_kW_DO = 2726.05
----------------------------------------
New "Loadshape.UGMT_DU" 24 1.0 mult=(0.7663 0.7793 0.7882 0.7885 0.7885 0.785 0.7712 0.7472 0.7341 0.7589 0.7319 0.7271 0.7236 0.7604 0.76 0.74 0.6903 0.7502 0.8009 0.8057 0.7888 0.7945 0.7973 0.7866)
New "Loadshape.UGMT_SA" 24 1.0 mult=(0.8669 0.8664 0.8679 0.7499 0.7479 0.7359 0.6217 0.6308 0.6757 0.674 0.6717 0.6702 0.6696 0.6697 0.6939 0.7204 0.864 0.8684 0.8691 0.8693 0.8704 0.8708 0.8716 0.8723)
New "Loadshape.UGMT_DO" 24 1.0 mult=(0.8729 0.872 0.8727 0.8729 0.8728 0.8728 0.873 0.8725 0.8724 0.8715 0.7475 0.7435 0.8671 0.8667 0.8668 0.8663 0.8672 0.8679 0.8047 0.6954 0.7447 0.6827 0.744 0.7943)
