ANUAL_MW-2007A267-02
Max_kW_DU = 2949.83
Max_kW_SA = 2918.94
Max_kW_DO = 2903.57
----------------------------------------
New "Loadshape.UGMT_DU" 24 1.0 mult=(0.6694 0.6784 0.6788 0.6751 0.6699 0.666 0.6533 0.6438 0.6371 0.6311 0.6218 0.621 0.6288 0.6422 0.6403 0.6426 0.6348 0.6544 0.6579 0.6711 0.6675 0.6675 0.6683 0.6649)
New "Loadshape.UGMT_SA" 24 1.0 mult=(0.7158 0.7468 0.7342 0.7098 0.7238 0.7292 0.7243 0.7074 0.7084 0.6944 0.6844 0.6886 0.6839 0.6596 0.6095 0.6285 0.6378 0.6244 0.6239 0.6593 0.7019 0.7271 0.7143 0.705)
New "Loadshape.UGMT_DO" 24 1.0 mult=(0.7004 0.7004 0.7052 0.7058 0.7001 0.7007 0.7004 0.6874 0.6616 0.6596 0.6337 0.6239 0.6339 0.6291 0.6036 0.5522 0.5487 0.5671 0.5393 0.5456 0.5577 0.5904 0.6522 0.7089)
