DEZ_MW-2007A267-02
Max_kW_DU = 2949.83
Max_kW_SA = 2918.94
Max_kW_DO = 2903.57
----------------------------------------
New "Loadshape.UGMT_DU" 24 1.0 mult=(0.7567 0.752 0.7524 0.7807 0.7808 0.7807 0.735 0.6932 0.6876 0.6597 0.6335 0.6643 0.7038 0.6693 0.6281 0.6629 0.6995 0.7108 0.7484 0.8014 0.806 0.8116 0.816 0.7979)
New "Loadshape.UGMT_SA" 24 1.0 mult=(0.7544 0.8803 0.8458 0.6664 0.6668 0.6978 0.8117 0.7947 0.8409 0.9084 0.9189 0.9176 0.909 0.7374 0.8541 0.9122 0.9142 0.915 0.7967 0.7988 0.9293 0.931 0.932 0.9324)
New "Loadshape.UGMT_DO" 24 1.0 mult=(0.9378 0.9379 0.9382 0.9381 0.9363 0.9353 0.9342 0.9315 0.9294 0.9266 0.9242 0.7788 0.7451 0.693 0.5679 0.5553 0.5555 0.5564 0.5581 0.5593 0.5594 0.5605 0.5599 0.5616)
