FEV_MW-2007A267-02
Max_kW_DU = 2694.3
Max_kW_SA = 2481.1
Max_kW_DO = 2408.43
----------------------------------------
New "Loadshape.UGMT_DU" 24 1.0 mult=(0.7372 0.7377 0.767 0.7567 0.7179 0.7263 0.7287 0.726 0.7327 0.6808 0.6725 0.7234 0.6892 0.687 0.6915 0.6859 0.7306 0.7731 0.7692 0.8037 0.6778 0.6441 0.6107 0.6842)
New "Loadshape.UGMT_SA" 24 1.0 mult=(0.8483 0.9532 0.9536 0.9536 0.9532 0.9534 0.8372 0.7304 0.7298 0.7289 0.7278 0.59 0.7476 0.9037 0.7184 0.5178 0.4605 0.4659 0.6809 0.7039 0.8458 0.9537 0.9484 0.9444)
New "Loadshape.UGMT_DO" 24 1.0 mult=(0.9735 0.9741 0.9748 0.9747 0.9745 0.9749 0.9749 0.9752 0.9742 0.9727 0.972 0.971 0.9706 0.9703 0.9697 0.9695 0.9711 0.9703 0.9714 0.9329 0.7256 0.7272 0.9358 0.972)
