JAN_MW-2007A267-02
Max_kW_DU = 2839.87
Max_kW_SA = 2797.68
Max_kW_DO = 2812.41
----------------------------------------
New "Loadshape.UGMT_DU" 24 1.0 mult=(0.781 0.8159 0.8031 0.7651 0.7541 0.735 0.7034 0.7992 0.8133 0.8358 0.778 0.7454 0.7973 0.8822 0.8653 0.846 0.7217 0.8501 0.7564 0.7671 0.7965 0.737 0.7387 0.7611)
New "Loadshape.UGMT_SA" 24 1.0 mult=(0.9469 0.8296 0.6975 0.7135 0.9017 0.9453 0.9453 0.8242 0.821 0.6172 0.6985 0.8974 0.7707 0.6285 0.2411 0.3997 0.4653 0.2428 0.2677 0.525 0.592 0.7057 0.7057 0.7055)
New "Loadshape.UGMT_DO" 24 1.0 mult=(0.7015 0.702 0.6597 0.6597 0.6596 0.6601 0.66 0.5704 0.3454 0.4838 0.4563 0.5499 0.5517 0.4117 0.4502 0.2943 0.3671 0.453 0.5067 0.3936 0.3414 0.4432 0.5469 0.775)
