JUL_MW-2007A267-02
Max_kW_DU = 2868.03
Max_kW_SA = 2786.08
Max_kW_DO = 2780.48
----------------------------------------
New "Loadshape.UGMT_DU" 24 1.0 mult=(0.7664 0.7582 0.7587 0.7589 0.7592 0.7596 0.7464 0.7245 0.7233 0.7111 0.6779 0.6847 0.701 0.7161 0.7234 0.7311 0.758 0.7665 0.7695 0.7682 0.7668 0.7725 0.7261 0.7604)
New "Loadshape.UGMT_SA" 24 1.0 mult=(0.8613 0.8615 0.7925 0.7936 0.794 0.794 0.7936 0.7937 0.7942 0.7938 0.7933 0.794 0.7617 0.7788 0.7387 0.7791 0.7862 0.7934 0.7943 0.795 0.7966 0.7969 0.7973 0.7972)
New "Loadshape.UGMT_DO" 24 1.0 mult=(0.7992 0.7993 0.7996 0.8 0.8005 0.8005 0.8003 0.8002 0.8003 0.7992 0.7982 0.7963 0.7941 0.793 0.7927 0.7485 0.6225 0.7111 0.7423 0.7609 0.7969 0.797 0.7976 0.798)
