JUN_MW-2007A267-02
Max_kW_DU = 1442.74
Max_kW_SA = 1432.53
Max_kW_DO = 1402.5
----------------------------------------
New "Loadshape.UGMT_DU" 24 1.0 mult=(0.8235 0.848 0.818 0.8184 0.8039 0.7764 0.7766 0.7544 0.7317 0.6667 0.6448 0.6106 0.6232 0.6239 0.6566 0.6732 0.7106 0.8377 0.86 0.8602 0.8611 0.8614 0.8841 0.8311)
New "Loadshape.UGMT_SA" 24 1.0 mult=(0.7896 0.9449 0.9456 0.9457 0.9457 0.9456 0.9458 0.9462 0.9464 0.9448 0.9418 0.9393 0.9368 0.9362 0.7043 0.703 0.7038 0.5634 0.4742 0.591 0.7108 0.711 0.7112 0.7113)
New "Loadshape.UGMT_DO" 24 1.0 mult=(0.7268 0.7317 0.941 0.9669 0.9669 0.967 0.967 0.9676 0.9675 0.9658 0.7367 0.7211 0.7204 0.72 0.5003 0.4836 0.4629 0.4208 0.4782 0.479 0.4794 0.5889 0.7295 0.7297)
