MAI_MW-2007A267-02
Max_kW_DU = 1349.28
Max_kW_SA = 1343.87
Max_kW_DO = 1344.5
----------------------------------------
New "Loadshape.UGMT_DU" 24 1.0 mult=(0.4623 0.4509 0.4743 0.4746 0.4747 0.4661 0.4312 0.4298 0.3907 0.4054 0.384 0.3795 0.4003 0.4345 0.4632 0.4708 0.471 0.4717 0.4723 0.4727 0.4732 0.4737 0.4741 0.4742)
New "Loadshape.UGMT_SA" 24 1.0 mult=(0.4987 0.4988 0.4991 0.4995 0.4997 0.4997 0.4995 0.4997 0.4998 0.499 0.4973 0.496 0.4942 0.4932 0.4931 0.4933 0.4939 0.4949 0.4959 0.4973 0.4975 0.4981 0.4995 0.499)
New "Loadshape.UGMT_DO" 24 1.0 mult=(0.499 0.4991 0.4994 0.4993 0.4993 0.4991 0.4044 0.2494 0.2493 0.2488 0.2476 0.2489 0.2469 0.2568 0.4866 0.494 0.4942 0.4953 0.3058 0.2478 0.3164 0.2951 0.2478 0.2479)
