ABR_13000821
Max_kW_DU = 905.31
Max_kW_SA = 854.91
Max_kW_DO = 910.35
----------------------------------------
New "Loadshape.UGMT_DU" 24 1.0 mult=(0.5111 0.5003 0.4749 0.4392 0.4539 0.4728 0.4658 0.4733 0.6936 0.8912 0.8613 0.8668 0.8154 0.8665 0.8895 0.8943 0.8713 0.8903 0.8346 0.8107 0.5469 0.559 0.564 0.5169)
New "Loadshape.UGMT_SA" 24 1.0 mult=(0.4974 0.4972 0.3973 0.3973 0.3972 0.3969 0.3968 0.3956 0.5331 0.5853 0.5486 0.5811 0.5811 0.5001 0.5807 0.5804 0.5804 0.5803 0.5528 0.5823 0.5825 0.5829 0.5828 0.5828)
New "Loadshape.UGMT_DO" 24 1.0 mult=(0.5477 0.5477 0.5478 0.5475 0.5474 0.5475 0.5469 0.5383 0.3799 0.5642 0.5647 0.5643 0.5644 0.5377 0.5644 0.564 0.5639 0.5343 0.6433 0.5734 0.5727 0.5727 0.5675 0.373)
