AGO_13000821
Max_kW_DU = 849.24
Max_kW_SA = 848.61
Max_kW_DO = 846.09
----------------------------------------
New "Loadshape.UGMT_DU" 24 1.0 mult=(0.0 0.0 0.0 0.0 0.0 0.0 0.0 0.0 0.6333 0.8585 0.8578 0.8648 0.8747 0.9083 0.8293 0.8595 0.8386 0.8121 0.7804 0.6638 0.0 0.0 0.0 0.0)
New "Loadshape.UGMT_SA" 24 1.0 mult=(0.0 0.0 0.0 0.0 0.0 0.0 0.0 0.0 0.1409 0.2496 0.2498 0.25 0.2222 0.0609 0.0442 0.2489 0.2489 0.2487 0.2487 0.24 0.0 0.0 0.0 0.0)
New "Loadshape.UGMT_DO" 24 1.0 mult=(0.0 0.0 0.0 0.0 0.0 0.0 0.0 0.0 0.1 0.2498 0.25 0.2077 0.2489 0.2483 0.2174 0.248 0.2476 0.2133 0.2478 0.2379 0.0 0.0 0.0 0.0)
