ANUAL_13000821
Max_kW_DU = 938.07
Max_kW_SA = 928.62
Max_kW_DO = 934.92
----------------------------------------
New "Loadshape.UGMT_DU" 24 1.0 mult=(0.196 0.195 0.1902 0.1921 0.1967 0.1966 0.1954 0.1882 0.4478 0.5892 0.5768 0.5773 0.559 0.538 0.5719 0.5801 0.5499 0.5512 0.5261 0.4417 0.216 0.2114 0.2232 0.2079)
New "Loadshape.UGMT_SA" 24 1.0 mult=(0.2563 0.2664 0.2619 0.2593 0.2418 0.2509 0.2647 0.2644 0.3394 0.4367 0.4323 0.4369 0.4338 0.3944 0.3996 0.4347 0.4259 0.4016 0.3814 0.3808 0.223 0.2325 0.2202 0.1997)
New "Loadshape.UGMT_DO" 24 1.0 mult=(0.1892 0.1936 0.2017 0.2037 0.191 0.1806 0.1868 0.1826 0.2328 0.3253 0.2943 0.2538 0.2847 0.3065 0.3002 0.2769 0.27 0.2739 0.2725 0.2354 0.211 0.2137 0.2102 0.1974)
