FEV_13000821
Max_kW_DU = 934.92
Max_kW_SA = 927.99
Max_kW_DO = 934.92
----------------------------------------
New "Loadshape.UGMT_DU" 24 1.0 mult=(0.3165 0.3554 0.3476 0.3476 0.3476 0.3349 0.3414 0.3253 0.4299 0.5135 0.5202 0.5329 0.4698 0.4354 0.4812 0.455 0.4143 0.4398 0.4045 0.4089 0.4074 0.3595 0.3465 0.3169)
New "Loadshape.UGMT_SA" 24 1.0 mult=(0.4986 0.4986 0.4986 0.4986 0.4986 0.4985 0.4986 0.4985 0.4734 0.435 0.499 0.4986 0.4986 0.4986 0.4985 0.4582 0.4976 0.387 0.2493 0.2492 0.1967 0.2466 0.1785 0.0317)
New "Loadshape.UGMT_DO" 24 1.0 mult=(0.0 0.0074 0.2475 0.1675 0.0 0.0 0.0 0.0 0.2461 0.4436 0.3051 0.2487 0.3442 0.3699 0.2485 0.2485 0.2483 0.2483 0.2481 0.2481 0.4264 0.4976 0.4976 0.4981)
