JAN_13000821
Max_kW_DU = 927.99
Max_kW_SA = 928.62
Max_kW_DO = 933.03
----------------------------------------
New "Loadshape.UGMT_DU" 24 1.0 mult=(0.3869 0.3631 0.3764 0.3956 0.4038 0.4038 0.4039 0.3975 0.6673 0.8969 0.9039 0.8899 0.8784 0.8359 0.8578 0.8844 0.641 0.7194 0.6471 0.3242 0.3795 0.3683 0.3701 0.3597)
New "Loadshape.UGMT_SA" 24 1.0 mult=(0.4953 0.4956 0.4954 0.4956 0.4956 0.4954 0.4956 0.4956 0.5336 0.7456 0.6633 0.6855 0.7449 0.7444 0.7446 0.7441 0.7439 0.5907 0.7035 0.743 0.7398 0.7378 0.6525 0.7371)
New "Loadshape.UGMT_DO" 24 1.0 mult=(0.647 0.6972 0.5245 0.5872 0.5869 0.5629 0.5797 0.5883 0.6639 0.7865 0.7155 0.5981 0.9476 0.9828 0.9824 0.7136 0.6415 0.7877 0.7799 0.5907 0.5904 0.5904 0.5904 0.5904)
