JUN_13000821
Max_kW_DU = 894.6
Max_kW_SA = 840.42
Max_kW_DO = 843.57
----------------------------------------
New "Loadshape.UGMT_DU" 24 1.0 mult=(0.221 0.1994 0.1991 0.2102 0.2101 0.1992 0.2105 0.1989 0.5852 0.7873 0.7222 0.7561 0.8047 0.7699 0.7852 0.7712 0.7645 0.781 0.7367 0.6153 0.2877 0.2952 0.2948 0.2945)
New "Loadshape.UGMT_SA" 24 1.0 mult=(0.3886 0.4848 0.4837 0.4839 0.4833 0.4837 0.4835 0.4839 0.5525 0.7352 0.7352 0.7358 0.7356 0.7354 0.7348 0.7346 0.735 0.735 0.7354 0.7232 0.2493 0.2483 0.2478 0.2476)
New "Loadshape.UGMT_DO" 24 1.0 mult=(0.2459 0.2453 0.2451 0.2444 0.2442 0.1262 0.2493 0.2493 0.3885 0.4457 0.2489 0.2493 0.2491 0.2489 0.2485 0.2485 0.2483 0.2485 0.2487 0.2478 0.0 0.0 0.0 0.0)
