MAI_13000821
Max_kW_DU = 906.57
Max_kW_SA = 858.69
Max_kW_DO = 871.29
----------------------------------------
New "Loadshape.UGMT_DU" 24 1.0 mult=(0.0815 0.0852 0.0815 0.0815 0.0815 0.0815 0.0814 0.0723 0.5327 0.8301 0.7851 0.7787 0.8055 0.8503 0.8643 0.8809 0.8651 0.7987 0.7624 0.6633 0.1213 0.1205 0.1205 0.1205)
New "Loadshape.UGMT_SA" 24 1.0 mult=(0.2366 0.2368 0.2366 0.2366 0.2364 0.2364 0.2324 0.2318 0.7555 0.9615 0.9617 0.9617 0.9609 0.9604 0.9598 0.9595 0.9589 0.9582 0.9296 0.9402 0.0015 0.0 0.0 0.0)
New "Loadshape.UGMT_DO" 24 1.0 mult=(0.0 0.0 0.0 0.0 0.0 0.0 0.0 0.0 0.2556 0.498 0.4986 0.4984 0.4393 0.4973 0.4933 0.4928 0.4924 0.4922 0.4919 0.4687 0.0 0.0 0.0 0.0)
