MAR_13000821
Max_kW_DU = 938.07
Max_kW_SA = 914.76
Max_kW_DO = 917.91
----------------------------------------
New "Loadshape.UGMT_DU" 24 1.0 mult=(0.5603 0.568 0.525 0.5431 0.543 0.5432 0.5356 0.5429 0.6479 0.7714 0.7737 0.7833 0.6838 0.4927 0.6516 0.6983 0.6618 0.6881 0.6305 0.4708 0.5024 0.5136 0.6167 0.5749)
New "Loadshape.UGMT_SA" 24 1.0 mult=(0.6464 0.9428 0.8864 0.8533 0.7905 0.9437 0.9432 0.9439 0.8311 0.9459 0.949 0.9483 0.8736 0.6491 0.6928 0.9261 0.7522 0.7013 0.7009 0.6975 0.8313 0.9466 0.9466 0.9463)
New "Loadshape.UGMT_DO" 24 1.0 mult=(0.9429 0.9429 0.8989 0.9291 0.9286 0.9271 0.878 0.8198 0.6151 0.6517 0.6476 0.3804 0.2385 0.4796 0.4801 0.4799 0.4798 0.454 0.24 0.2536 0.551 0.5698 0.657 0.7255)
