OUT_13000821
Max_kW_DU = 907.2
Max_kW_SA = 798.84
Max_kW_DO = 902.16
----------------------------------------
New "Loadshape.UGMT_DU" 24 1.0 mult=(0.2417 0.2987 0.2515 0.2572 0.2921 0.2958 0.278 0.22 0.2306 0.2494 0.2541 0.1907 0.1638 0.1529 0.1552 0.2094 0.2655 0.2129 0.1994 0.2001 0.1972 0.189 0.2322 0.2475)
New "Loadshape.UGMT_SA" 24 1.0 mult=(0.2472 0.2466 0.2453 0.2443 0.0519 0.0142 0.2476 0.2478 0.2484 0.2484 0.2482 0.2482 0.248 0.248 0.1928 0.2271 0.25 0.2496 0.043 0.003 0.042 0.0 0.0 0.0)
New "Loadshape.UGMT_DO" 24 1.0 mult=(0.0 0.0 0.0 0.0 0.0 0.0 0.0 0.0 0.12 0.1997 0.1999 0.2 0.1993 0.1985 0.1985 0.1986 0.1986 0.1986 0.1985 0.1982 0.3275 0.2824 0.1781 0.1782)
