SET_13000821
Max_kW_DU = 900.27
Max_kW_SA = 840.42
Max_kW_DO = 844.2
----------------------------------------
New "Loadshape.UGMT_DU" 24 1.0 mult=(0.0911 0.0911 0.0868 0.0867 0.0867 0.0867 0.0866 0.0853 0.532 0.6154 0.6314 0.6647 0.6394 0.6276 0.731 0.7355 0.7264 0.6977 0.7212 0.6921 0.2346 0.2121 0.2082 0.1286)
New "Loadshape.UGMT_SA" 24 1.0 mult=(0.1885 0.1883 0.1882 0.1882 0.1879 0.188 0.1738 0.1706 0.196 0.3888 0.3892 0.3889 0.3892 0.3463 0.3421 0.3879 0.3873 0.387 0.3861 0.378 0.1862 0.1864 0.1802 0.0)
New "Loadshape.UGMT_DO" 24 1.0 mult=(0.0 0.0 0.0 0.0 0.0 0.0 0.0 0.0 0.133 0.2494 0.2466 0.2097 0.2494 0.208 0.25 0.2496 0.2494 0.2062 0.2485 0.0797 0.0 0.0 0.0 0.0)
